# Name file for MODFLOW-2005, generated by Flopy version 3.6.0.
#xll:0.0; yll:0.0; rotation:0.0; units:meters; lenuni:2; start_datetime:1-1-1970
LIST               2  tutorial1_mf.list
DIS               11  tutorial1_mf.dis
BAS6              13  tutorial1_mf.bas
LPF               15  tutorial1_mf.lpf
OC                14  tutorial1_mf.oc
PCG               27  tutorial1_mf.pcg
DATA(BINARY)      53  tutorial1_mf.cbc REPLACE
DATA(BINARY)      51  tutorial1_mf.hds REPLACE
