# DIS package for MODFLOW-2005 generated by Flopy 3.6.0
         1        21        21         1         1         2
  0
CONSTANT    2.000000E+02                           #delr                          
CONSTANT    2.000000E+02                           #delc                          
CONSTANT    1.500000E+01                           #model_top                     
CONSTANT    0.000000E+00                           #botm layer 1                  
  86400.000000            53  1.100000  TR
