# Name file for MODFLOW-2005, generated by Flopy version 3.6.0.
#xll:0.0; yll:0.0; rotation:0.0; units:meters; lenuni:2; start_datetime:1-1-1970
LIST               2  mf_theis.list
DIS               11  mf_theis.dis
BAS6              13  mf_theis.bas
LPF               15  mf_theis.lpf
WEL               20  mf_theis.wel
PCG               27  mf_theis.pcg
OC                14  mf_theis.oc
DATA(BINARY)      53  mf_theis.cbc REPLACE
DATA(BINARY)      51  mf_theis.hds REPLACE
