# WEL package for MODFLOW-2005 generated by Flopy 3.6.0
         1        53 
         1         0 # stress period 1
         1        11        11           -0.02
